12
Properties=species:S:1:pos:R:3 pbc="F F F"
C        0.69762400       0.00000000      -0.94146670
C        1.39524782       0.00000000      -2.14978680
C        0.69762382       0.00000000      -3.35810702
C       -0.69762400       0.00000000      -3.35810712
C       -1.39524782       0.00000000      -2.14978702
C       -0.69762382       0.00000000      -0.94146680
H        1.24118000       0.00000000      -0.00000009
H        2.48236015       0.00000000      -2.14978700
H        1.24118015       0.00000000      -4.29957382
H       -1.24118000       0.00000000      -4.29957373
H       -2.48236015       0.00000000      -2.14978682
H       -1.24118015       0.00000000       0.00000000
